14
Coordinates from ORCA-job reactants E -344.245343101728
  C      29.003001    -15.642965      0.183593
  C      30.373478    -15.119107     -0.054822
  O      31.356563    -15.841642      0.016744
  O      30.466348    -13.841778     -0.355070
  C      32.680233    -15.532096     -0.206553
  O      36.457217    -15.599508      0.177906
  H      28.532639    -15.100804      1.005225
  H      29.063009    -16.697760      0.428567
  H      28.385028    -15.499992     -0.705349
  H      33.379428    -16.320136     -0.023120
  H      31.349664    -13.582165     -0.603033
  H      32.925148    -14.489410     -0.306346
  H      37.328287    -15.300709      0.384688
  H      35.924492    -14.829544      0.057569
14
Coordinates from ORCA-job reactants E -344.252066526323
  C      28.997799    -15.652621      0.197477
  C      30.358865    -15.106175     -0.060182
  O      31.381923    -15.834605     -0.006266
  O      30.436620    -13.812282     -0.379919
  C      32.691044    -15.512507     -0.234756
  O      36.463268    -15.628840      0.171632
  H      28.517861    -15.114600      1.033314
  H      29.074840    -16.718357      0.445636
  H      28.354164    -15.522688     -0.690209
  H      33.392109    -16.317112     -0.052342
  H      31.327549    -13.564080     -0.669990
  H      32.944289    -14.453059     -0.242010
  H      37.351959    -15.332807      0.403919
  H      35.932244    -14.827881      0.083697
14
Coordinates from ORCA-job reactants E -344.254715075360
  C      29.006993    -15.656543      0.210452
  C      30.355188    -15.097228     -0.062036
  O      31.400892    -15.828155     -0.033652
  O      30.438271    -13.797346     -0.400633
  C      32.690401    -15.479627     -0.272972
  O      36.448780    -15.647648      0.151174
  H      28.525370    -15.130336      1.057401
  H      29.094726    -16.725730      0.453636
  H      28.342445    -15.532596     -0.667265
  H      33.390415    -16.290764     -0.084641
  H      31.320112    -13.598045     -0.762773
  H      32.944598    -14.424518     -0.119846
  H      37.336354    -15.359755      0.413376
  H      35.929989    -14.829325      0.117780
14
Coordinates from ORCA-job reactants E -344.257416496695
  C      29.020383    -15.652033      0.226688
  C      30.357060    -15.089841     -0.056024
  O      31.418129    -15.828721     -0.067750
  O      30.476174    -13.792349     -0.416141
  C      32.683762    -15.419803     -0.329568
  O      36.422680    -15.653989      0.113516
  H      28.541977    -15.144528      1.088667
  H      29.109753    -16.725592      0.455475
  H      28.334432    -15.522022     -0.636192
  H      33.386934    -16.237811     -0.143989
  H      31.322083    -13.700027     -0.905303
  H      32.928971    -14.423185      0.081038
  H      37.303272    -15.384160      0.423709
  H      35.918924    -14.823555      0.165873
14
Coordinates from ORCA-job reactants E -344.259481293305
  C      29.024603    -15.636413      0.231028
  C      30.368054    -15.096131     -0.038092
  O      31.419975    -15.853360     -0.065679
  O      30.552422    -13.815538     -0.407492
  C      32.667669    -15.380699     -0.361007
  O      36.392046    -15.631263      0.081545
  H      28.548101    -15.136013      1.096648
  H      29.092464    -16.713389      0.447286
  H      28.342643    -15.484680     -0.630285
  H      33.385408    -16.193383     -0.197450
  H      31.375355    -13.829963     -0.961492
  H      32.898608    -14.450328      0.197951
  H      37.264169    -15.372433      0.421423
  H      35.893019    -14.804024      0.185616
14
Coordinates from ORCA-job reactants E -344.263349770495
  C      29.021384    -15.606959      0.218772
  C      30.389295    -15.115665      0.001671
  O      31.405016    -15.905249     -0.003013
  O      30.684776    -13.887598     -0.382028
  C      32.625822    -15.339095     -0.374193
  O      36.340429    -15.578125      0.029727
  H      28.531157    -15.095263      1.063617
  H      29.042656    -16.682386      0.434475
  H      28.384144    -15.427394     -0.664753
  H      33.375765    -16.127419     -0.272240
  H      31.533034    -14.052104     -0.913831
  H      32.845503    -14.483497      0.294099
  H      37.203010    -15.331901      0.388500
  H      35.842543    -14.764961      0.179198
14
Coordinates from ORCA-job reactants E -344.269500932441
  C      29.018133    -15.606314      0.197038
  C      30.391862    -15.105421      0.030291
  O      31.388453    -15.890296      0.111092
  O      30.712678    -13.944509     -0.409210
  C      32.593290    -15.244491     -0.358640
  O      36.305442    -15.564112     -0.032506
  H      28.479278    -15.060051      0.980796
  H      29.041734    -16.665245      0.467032
  H      28.445810    -15.474242     -0.730069
  H      33.356287    -16.018909     -0.357614
  H      31.652850    -14.200803     -0.819130
  H      32.843110    -14.493736      0.414900
  H      37.170756    -15.367820      0.334031
  H      35.824850    -14.761668      0.171987
14
Coordinates from ORCA-job reactants E -344.278753613015
  C      29.021835    -15.652518      0.172060
  C      30.377303    -15.063266      0.032209
  O      31.356349    -15.794548      0.265856
  O      30.609615    -13.980605     -0.478801
  C      32.580861    -15.094088     -0.309164
  O      36.286829    -15.609378     -0.086755
  H      28.407978    -15.066086      0.853637
  H      29.104803    -16.670088      0.547249
  H      28.540998    -15.640265     -0.803374
  H      33.324456    -15.861381     -0.433555
  H      31.713501    -14.188416     -0.717870
  H      32.890837    -14.455662      0.523108
  H      37.166498    -15.507514      0.260548
  H      35.842672    -14.813800      0.174853
14
Coordinates from ORCA-job reactants E -344.288771606918
  C      29.017453    -15.683569      0.184100
  C      30.363085    -15.042574      0.007993
  O      31.346605    -15.754339      0.278692
  O      30.507526    -13.972862     -0.532929
  C      32.606316    -14.998946     -0.241595
  O      36.299976    -15.627808     -0.106612
  H      28.390786    -15.085385      0.845634
  H      29.142321    -16.684601      0.594581
  H      28.550564    -15.716078     -0.798308
  H      33.333232    -15.749456     -0.494822
  H      31.667879    -14.141406     -0.864724
  H      32.936447    -14.474929      0.648262
  H      37.192300    -15.608269      0.228108
  H      35.870046    -14.857395      0.251620
14
Coordinates from ORCA-job reactants E -344.304792861997
  C      28.983360    -15.675106      0.154793
  C      30.361780    -15.057342     -0.005754
  O      31.343893    -15.781706      0.376858
  O      30.571932    -14.016349     -0.618928
  C      32.572908    -14.894533     -0.121893
  O      36.260345    -15.568758     -0.215883
  H      28.329604    -15.011030      0.736573
  H      29.064358    -16.652350      0.644204
  H      28.575117    -15.769235     -0.859788
  H      33.299113    -15.606402     -0.518928
  H      31.875180    -14.363815     -0.772698
  H      32.954955    -14.547573      0.844605
  H      37.175991    -15.615198      0.083886
  H      35.855998    -14.838217      0.272953
14
Coordinates from ORCA-job reactants E -344.305769029901
  C      28.918842    -15.696098      0.163044
  C      30.308214    -15.069819     -0.056124
  O      31.384687    -15.814425      0.349550
  O      30.474842    -13.910447     -0.709327
  C      32.619233    -15.034385     -0.143201
  O      36.317341    -15.595474     -0.192564
  H      28.274660    -15.009007      0.766006
  H      29.000404    -16.683659      0.663698
  H      28.456561    -15.810248     -0.852081
  H      33.364800    -15.810414     -0.480922
  H      31.969067    -14.084550     -0.601412
  H      32.986330    -14.503101      0.754240
  H      37.258803    -15.575952      0.107360
  H      35.890749    -14.800035      0.231735
14
Coordinates from ORCA-job reactants E -344.342469495406
  C      28.942690    -15.693537      0.163311
  C      30.308830    -15.061264     -0.086015
  O      31.365256    -15.782703      0.327425
  O      30.452753    -13.967835     -0.695354
  C      32.609460    -14.955130     -0.088651
  O      36.288011    -15.575028     -0.210785
  H      28.313447    -15.004964      0.758000
  H      29.044761    -16.665100      0.674370
  H      28.477572    -15.823116     -0.833525
  H      33.334120    -15.665438     -0.534528
  H      31.996195    -14.221537     -0.693668
  H      32.986680    -14.525305      0.841677
  H      37.217308    -15.612653      0.077381
  H      35.887451    -14.844006      0.300362
14
Coordinates from ORCA-job reactants E -344.354161893920
  C      28.967149    -15.703950      0.139169
  C      30.317701    -15.062873     -0.116926
  O      31.338641    -15.757987      0.389229
  O      30.444842    -14.051617     -0.735519
  C      32.574017    -14.932271      0.009757
  O      36.226144    -15.567565     -0.261365
  H      28.327014    -14.986638      0.668303
  H      29.069302    -16.635060      0.709598
  H      28.531746    -15.898652     -0.850088
  H      33.271398    -15.572376     -0.535991
  H      32.154232    -14.179161     -0.638098
  H      32.983697    -14.528910      0.928326
  H      37.155528    -15.639105     -0.017414
  H      35.863123    -14.881453      0.311019
14
Coordinates from ORCA-job reactants E -344.362836621101
  C      28.991775    -15.743070      0.141411
  C      30.278443    -15.016851     -0.139702
  O      31.360289    -15.648894      0.357214
  O      30.358259    -14.019520     -0.777633
  C      32.585869    -14.871373      0.015581
  O      36.199672    -15.618627     -0.259340
  H      28.315329    -15.063385      0.670474
  H      29.157457    -16.654725      0.725059
  H      28.535197    -15.988583     -0.824546
  H      33.268979    -15.516888     -0.537914
  H      32.160278    -14.069171     -0.669436
  H      33.014809    -14.517321      0.970242
  H      37.121387    -15.728025     -0.007496
  H      35.876792    -14.941183      0.336086
14
Coordinates from ORCA-job reactants E -344.352372575378
  C      28.992567    -15.759054      0.144440
  C      30.216835    -14.980268     -0.221077
  O      31.404214    -15.554316      0.241489
  O      30.277961    -13.936436     -0.858850
  C      32.597472    -14.869284     -0.001477
  O      36.196643    -15.634465     -0.257287
  H      28.316955    -15.096290      0.711684
  H      29.217415    -16.660087      0.733377
  H      28.449193    -16.053672     -0.771230
  H      33.291984    -15.535727     -0.546340
  H      32.203814    -14.120438     -0.516382
  H      33.035408    -14.496088      0.966421
  H      37.123398    -15.750825      0.010364
  H      35.900673    -14.950666      0.364869
14
Coordinates from ORCA-job reactants E -344.368394302756
  C      28.995600    -15.755284      0.139295
  C      30.251807    -15.007397     -0.203660
  O      31.377528    -15.616797      0.308865
  O      30.327213    -13.982889     -0.875446
  C      32.566851    -14.910784      0.050134
  O      36.170432    -15.616843     -0.279113
  H      28.314421    -15.067356      0.668345
  H      29.188675    -16.644521      0.754580
  H      28.486240    -16.055389     -0.792301
  H      33.262681    -15.557909     -0.509564
  H      32.290848    -13.970496     -0.568758
  H      33.011610    -14.546172      0.997071
  H      37.105202    -15.725625     -0.043486
  H      35.875426    -14.940156      0.354039
14
Coordinates from ORCA-job reactants E -344.370671835026
  C      29.013729    -15.774130      0.136179
  C      30.248809    -14.988473     -0.211595
  O      31.356782    -15.564968      0.322588
  O      30.269861    -13.991908     -0.844836
  C      32.581292    -14.817442      0.029603
  O      36.155575    -15.651295     -0.267657
  H      28.314961    -15.110259      0.662591
  H      29.244492    -16.650228      0.751351
  H      28.528711    -16.086757     -0.797982
  H      33.270458    -15.489029     -0.495583
  H      32.256426    -13.963179     -0.604032
  H      33.022115    -14.539605      1.003346
  H      37.079946    -15.800628     -0.039337
  H      35.881376    -14.969715      0.355364
14
Coordinates from ORCA-job reactants E -344.373590165115
  C      29.008924    -15.775018      0.132142
  C      30.245392    -14.990349     -0.223361
  O      31.362842    -15.558662      0.322436
  O      30.274230    -13.986444     -0.883928
  C      32.578270    -14.838466      0.061864
  O      36.138795    -15.640673     -0.281734
  H      28.305817    -15.102852      0.647354
  H      29.237401    -16.642211      0.763189
  H      28.518945    -16.106252     -0.796476
  H      33.270570    -15.493952     -0.486370
  H      32.309154    -13.968989     -0.564317
  H      33.025062    -14.537519      1.021864
  H      37.070298    -15.792131     -0.071660
  H      35.878835    -14.964099      0.358997
14
Coordinates from ORCA-job reactants E -344.374625345871
  C      29.022154    -15.790193      0.126237
  C      30.239945    -14.979697     -0.235985
  O      31.366421    -15.514278      0.324562
  O      30.248344    -13.991651     -0.924714
  C      32.579227    -14.817226      0.074886
  O      36.100235    -15.660707     -0.289545
  H      28.297596    -15.127311      0.624190
  H      29.270142    -16.636839      0.777377
  H      28.542284    -16.155012     -0.795320
  H      33.272983    -15.483962     -0.460913
  H      32.346785    -13.906506     -0.511536
  H      33.031633    -14.526945      1.037555
  H      37.032866    -15.833369     -0.100633
  H      35.873920    -14.973919      0.353837
14
Coordinates from ORCA-job reactants E -344.375429613990
  C      29.036141    -15.805898      0.121767
  C      30.241897    -14.976133     -0.249331
  O      31.367558    -15.476386      0.329813
  O      30.225733    -13.996317     -0.952633
  C      32.582728    -14.785713      0.096174
  O      36.047447    -15.671970     -0.294300
  H      28.294500    -15.150939      0.605840
  H      29.301037    -16.634565      0.789694
  H      28.568297    -16.197338     -0.795447
  H      33.280060    -15.442366     -0.447393
  H      32.403827    -13.879873     -0.495083
  H      33.032746    -14.514764      1.065299
  H      36.980037    -15.876558     -0.139498
  H      35.862526    -14.988798      0.365098
14
Coordinates from ORCA-job reactants E -344.375878246380
  C      29.056893    -15.828619      0.117936
  C      30.245659    -14.969764     -0.253027
  O      31.370640    -15.426897      0.342261
  O      30.198219    -14.006117     -0.979038
  C      32.596051    -14.732557      0.104217
  O      35.989933    -15.701867     -0.294132
  H      28.289816    -15.190029      0.583123
  H      29.339376    -16.638015      0.802036
  H      28.615904    -16.246302     -0.800476
  H      33.292723    -15.394048     -0.434557
  H      32.418872    -13.813903     -0.470594
  H      33.040701    -14.489609      1.082837
  H      36.917529    -15.945564     -0.172344
  H      35.852218    -15.014326      0.371758
14
Coordinates from ORCA-job reactants E -344.376070673570
  C      29.073913    -15.840555      0.113437
  C      30.254537    -14.969015     -0.250698
  O      31.377449    -15.400475      0.352830
  O      30.194204    -14.017043     -0.987208
  C      32.605239    -14.706511      0.116464
  O      35.937173    -15.716072     -0.293858
  H      28.292302    -15.211119      0.565403
  H      29.359171    -16.641650      0.806053
  H      28.651764    -16.270002     -0.807818
  H      33.301070    -15.367870     -0.421155
  H      32.434581    -13.788621     -0.461651
  H      33.042914    -14.459909      1.094663
  H      36.861337    -15.983021     -0.202375
  H      35.838881    -15.025753      0.375913
14
Coordinates from ORCA-job reactants E -344.376290942425
  C      29.098693    -15.855320      0.107960
  C      30.269976    -14.970080     -0.247677
  O      31.392302    -15.373095      0.366878
  O      30.197325    -14.025075     -0.993095
  C      32.618421    -14.672367      0.128500
  O      35.861570    -15.732460     -0.290760
  H      28.300866    -15.236173      0.544988
  H      29.383460    -16.649655      0.809053
  H      28.698164    -16.296285     -0.817382
  H      33.314711    -15.338104     -0.402099
  H      32.445622    -13.762388     -0.458298
  H      33.045262    -14.419893      1.110703
  H      36.780255    -16.028081     -0.240340
  H      35.817906    -15.038640      0.381568
14
Coordinates from ORCA-job reactants E -344.376621016365
  C      29.137725    -15.874643      0.097464
  C      30.300488    -14.975193     -0.243177
  O      31.418646    -15.342505      0.395385
  O      30.221774    -14.041348     -1.003009
  C      32.639292    -14.630451      0.155447
  O      35.733559    -15.750343     -0.285819
  H      28.317605    -15.264537      0.504539
  H      29.411755    -16.658687      0.814943
  H      28.771824    -16.333623     -0.833665
  H      33.339287    -15.303286     -0.360023
  H      32.460444    -13.733450     -0.452103
  H      33.048954    -14.352132      1.137158
  H      36.641372    -16.081669     -0.313980
  H      35.781809    -15.055748      0.386840
14
Coordinates from ORCA-job reactants E -344.372465645976
  C      29.265614    -15.919178      0.060342
  C      30.422671    -14.995409     -0.222768
  O      31.521993    -15.312087      0.500014
  O      30.374399    -14.071650     -1.005073
  C      32.706090    -14.543238      0.244637
  O      35.297300    -15.764462     -0.294188
  H      28.396494    -15.316085      0.368637
  H      29.481673    -16.681386      0.821196
  H      28.995978    -16.420164     -0.885239
  H      33.444520    -15.228697     -0.199762
  H      32.453055    -13.733623     -0.443908
  H      33.059269    -14.122316      1.196929
  H      36.160124    -16.172527     -0.500005
  H      35.645354    -15.116793      0.359187
14
Coordinates from ORCA-job reactants E -344.375990264552
  C      29.222722    -15.900422      0.067854
  C      30.390694    -14.993280     -0.234831
  O      31.490139    -15.338707      0.478734
  O      30.353664    -14.067901     -1.013107
  C      32.681723    -14.584127      0.229875
  O      35.440125    -15.757684     -0.279368
  H      28.370430    -15.282964      0.393432
  H      29.450422    -16.658999      0.827808
  H      28.922414    -16.399777     -0.868436
  H      33.423096    -15.260657     -0.213432
  H      32.444206    -13.756041     -0.448954
  H      33.048028    -14.181700      1.186323
  H      36.310412    -16.133659     -0.505250
  H      35.676459    -15.081700      0.379352
14
Coordinates from ORCA-job reactants E -344.376250246030
  C      29.221217    -15.908177      0.078958
  C      30.366778    -14.979238     -0.254766
  O      31.478566    -15.313729      0.436814
  O      30.298819    -14.060449     -1.034528
  C      32.674725    -14.548464      0.192616
  O      35.488847    -15.770297     -0.268588
  H      28.365846    -15.306266      0.423320
  H      29.494525    -16.648105      0.841251
  H      28.903444    -16.422922     -0.841784
  H      33.426560    -15.196789     -0.270652
  H      32.443299    -13.696397     -0.459422
  H      33.031912    -14.247120      1.210718
  H      36.348052    -16.151406     -0.495371
  H      35.681944    -15.148259      0.441436
14
Coordinates from ORCA-job reactants E -344.376538157241
  C      29.184171    -15.891370      0.076070
  C      30.343162    -14.981073     -0.271961
  O      31.435797    -15.318970      0.430148
  O      30.288441    -14.086511     -1.074266
  C      32.650714    -14.600259      0.225356
  O      35.571969    -15.755088     -0.280841
  H      28.333094    -15.276174      0.403879
  H      29.462423    -16.603749      0.861423
  H      28.862844    -16.429348     -0.827813
  H      33.408973    -15.258991     -0.226372
  H      32.496493    -13.703381     -0.409420
  H      33.030226    -14.279929      1.202326
  H      36.431431    -16.096290     -0.527868
  H      35.724795    -15.116483      0.419340
14
Coordinates from ORCA-job reactants E -344.377126428092
  C      29.186941    -15.890415      0.076809
  C      30.352100    -14.986749     -0.255738
  O      31.453725    -15.335991      0.436993
  O      30.301797    -14.073590     -1.042350
  C      32.658938    -14.595603      0.214550
  O      35.557630    -15.753723     -0.277979
  H      28.340627    -15.271958      0.412527
  H      29.447432    -16.626353      0.847364
  H      28.866193    -16.407096     -0.841078
  H      33.412336    -15.254567     -0.240709
  H      32.455896    -13.739885     -0.431031
  H      33.028746    -14.247449      1.188810
  H      36.427141    -16.104668     -0.509865
  H      35.735031    -15.109568      0.421695
14
Coordinates from ORCA-job reactants E -344.377230413775
  C      29.185838    -15.891497      0.078411
  C      30.349624    -14.988610     -0.258194
  O      31.453151    -15.335952      0.435842
  O      30.299253    -14.073517     -1.043570
  C      32.653427    -14.589539      0.211985
  O      35.566128    -15.753575     -0.281239
  H      28.339421    -15.271762      0.412164
  H      29.445027    -16.625851      0.851243
  H      28.864569    -16.411718     -0.837712
  H      33.406664    -15.245681     -0.244884
  H      32.453201    -13.726602     -0.440852
  H      33.022035    -14.253600      1.198107
  H      36.437350    -16.105479     -0.511711
  H      35.748845    -15.124233      0.430411
14
Coordinates from ORCA-job reactants E -344.377309138405
  C      29.179934    -15.890376      0.079572
  C      30.344114    -14.988624     -0.258297
  O      31.448037    -15.336828      0.432132
  O      30.292944    -14.075238     -1.044869
  C      32.648638    -14.589956      0.211165
  O      35.586237    -15.753702     -0.284359
  H      28.333445    -15.270097      0.411388
  H      29.439475    -16.622375      0.854442
  H      28.859756    -16.412912     -0.835350
  H      33.403169    -15.243393     -0.248282
  H      32.446584    -13.722828     -0.435921
  H      33.016413    -14.252980      1.194201
  H      36.458422    -16.102030     -0.513194
  H      35.767366    -15.136275      0.437371
14
Coordinates from ORCA-job reactants E -344.377397688109
  C      29.168267    -15.888773      0.081699
  C      30.331415    -14.986826     -0.260173
  O      31.436480    -15.335995      0.425874
  O      30.277638    -14.075500     -1.049076
  C      32.636379    -14.585934      0.210234
  O      35.631183    -15.754064     -0.292437
  H      28.320158    -15.268324      0.408302
  H      29.429331    -16.614336      0.861950
  H      28.850797    -16.418614     -0.829814
  H      33.394520    -15.234746     -0.250360
  H      32.433878    -13.719359     -0.432294
  H      33.002314    -14.253156      1.193953
  H      36.504739    -16.096640     -0.521013
  H      35.807435    -15.165348      0.453155
14
Coordinates from ORCA-job reactants E -344.377425415975
  C      29.166183    -15.890808      0.081956
  C      30.327693    -14.987093     -0.259652
  O      31.433850    -15.332898      0.426329
  O      30.272021    -14.076297     -1.048844
  C      32.629989    -14.576889      0.212345
  O      35.646510    -15.757636     -0.300630
  H      28.314313    -15.271430      0.400628
  H      29.424642    -16.612137      0.867017
  H      28.855643    -16.426698     -0.828440
  H      33.390356    -15.222758     -0.249622
  H      32.423436    -13.709546     -0.429989
  H      32.992830    -14.241398      1.195332
  H      36.520864    -16.100886     -0.528814
  H      35.826205    -15.191142      0.462383
14
Coordinates from ORCA-job reactants E -344.377448262889
  C      29.167130    -15.894948      0.080856
  C      30.324512    -14.985229     -0.259636
  O      31.430889    -15.324203      0.430314
  O      30.265740    -14.076008     -1.050599
  C      32.623517    -14.562416      0.217352
  O      35.658300    -15.763854     -0.310912
  H      28.308173    -15.279304      0.387562
  H      29.424215    -16.608550      0.873371
  H      28.867656    -16.440750     -0.827499
  H      33.387226    -15.206205     -0.242092
  H      32.414464    -13.698766     -0.427731
  H      32.983221    -14.224753      1.201768
  H      36.530941    -16.109717     -0.543103
  H      35.838550    -15.222911      0.470349
14
Coordinates from ORCA-job reactants E -344.377506478380
  C      29.179225    -15.908480      0.076124
  C      30.324512    -14.980840     -0.257772
  O      31.429986    -15.298441      0.445006
  O      30.257953    -14.076408     -1.053562
  C      32.613780    -14.522923      0.233130
  O      35.658558    -15.782327     -0.335269
  H      28.300639    -15.305567      0.350742
  H      29.432252    -16.602554      0.887083
  H      28.912040    -16.478363     -0.827770
  H      33.385644    -15.162314     -0.219878
  H      32.397913    -13.667026     -0.419612
  H      32.964806    -14.175014      1.217999
  H      36.524290    -16.139121     -0.578294
  H      35.842934    -15.298239      0.482074
14
Coordinates from ORCA-job reactants E -344.377606756642
  C      29.217697    -15.939281      0.064241
  C      30.334722    -14.971758     -0.252802
  O      31.434765    -15.240614      0.479505
  O      30.252759    -14.079045     -1.060122
  C      32.600377    -14.438426      0.269595
  O      35.623316    -15.821699     -0.382803
  H      28.298998    -15.369352      0.268450
  H      29.459801    -16.590818      0.913001
  H      29.024504    -16.557011     -0.827428
  H      33.390587    -15.069171     -0.167628
  H      32.371878    -13.598382     -0.399852
  H      32.932234    -14.066543      1.253139
  H      36.471018    -16.204603     -0.649267
  H      35.811877    -15.450914      0.491974
14
Coordinates from ORCA-job reactants E -344.377691403848
  C      29.268494    -15.970865      0.051045
  C      30.355245    -14.963759     -0.247609
  O      31.444952    -15.181801      0.516239
  O      30.260970    -14.085159     -1.068650
  C      32.593303    -14.355155      0.309127
  O      35.554917    -15.857598     -0.427413
  H      28.313565    -15.439951      0.178565
  H      29.493603    -16.576054      0.938067
  H      29.156914    -16.634220     -0.821956
  H      33.403796    -14.976265     -0.108829
  H      32.354496    -13.531427     -0.377855
  H      32.903037    -13.958487      1.290306
  H      36.381124    -16.267682     -0.718375
  H      35.740117    -15.599194      0.487338
14
Coordinates from ORCA-job reactants E -344.377760171171
  C      29.304773    -15.988529      0.042629
  C      30.375336    -14.961306     -0.244891
  O      31.455549    -15.150418      0.538722
  O      30.278820    -14.093229     -1.076521
  C      32.596244    -14.311511      0.334580
  O      35.489270    -15.870786     -0.452839
  H      28.331343    -15.482056      0.116125
  H      29.513324    -16.559765      0.955986
  H      29.247856    -16.681593     -0.812470
  H      33.418765    -14.923292     -0.070256
  H      32.353461    -13.497926     -0.362672
  H      32.888470    -13.900275      1.314609
  H      36.300735    -16.296225     -0.760296
  H      35.670587    -15.680705      0.477294
14
Coordinates from ORCA-job reactants E -344.377801400202
  C      29.326719    -15.997670      0.038628
  C      30.389987    -14.962410     -0.244991
  O      31.465951    -15.138356      0.546102
  O      30.293468    -14.099785     -1.082276
  C      32.601925    -14.287336      0.347952
  O      35.444957    -15.871654     -0.467979
  H      28.344496    -15.505002      0.075471
  H      29.522273    -16.543000      0.970614
  H      29.304244    -16.712230     -0.800118
  H      33.428804    -14.891858     -0.054287
  H      32.352391    -13.475693     -0.348150
  H      32.880766    -13.873194      1.328864
  H      36.248620    -16.305367     -0.783012
  H      35.619934    -15.734062      0.473182
14
Coordinates from ORCA-job reactants E -344.377833268822
  C      29.332089    -15.997737      0.038038
  C      30.397212    -14.965536     -0.248413
  O      31.468803    -15.137705      0.548992
  O      30.307891    -14.109566     -1.093477
  C      32.602944    -14.283648      0.359990
  O      35.431823    -15.860160     -0.482384
  H      28.346500    -15.511111      0.033730
  H      29.508391    -16.510536      0.992094
  H      29.337713    -16.740104     -0.776456
  H      33.435846    -14.874684     -0.041316
  H      32.357881    -13.469950     -0.335737
  H      32.871040    -13.870141      1.344076
  H      36.234039    -16.290386     -0.805484
  H      35.592363    -15.776350      0.466346
14
Coordinates from ORCA-job reactants E -344.377883892932
  C      29.362233    -16.010330      0.032968
  C      30.415490    -14.966037     -0.252369
  O      31.477979    -15.114358      0.561886
  O      30.328350    -14.122680     -1.110503
  C      32.599261    -14.238769      0.389467
  O      35.396197    -15.860068     -0.515961
  H      28.366153    -15.555280     -0.056296
  H      29.498863    -16.460504      1.024496
  H      29.437664    -16.800849     -0.731379
  H      33.446766    -14.817993     -0.005347
  H      32.346900    -13.424774     -0.305256
  H      32.846244    -13.825639      1.378623
  H      36.188771    -16.297226     -0.853853
  H      35.513663    -15.903110      0.443524
14
Coordinates from ORCA-job reactants E -344.377937042452
  C      29.377573    -16.013860      0.031879
  C      30.428347    -14.968217     -0.257831
  O      31.484919    -15.106840      0.567378
  O      30.347885    -14.134439     -1.125894
  C      32.595800    -14.212422      0.412847
  O      35.389940    -15.845345     -0.542016
  H      28.381218    -15.588715     -0.149195
  H      29.462282    -16.392528      1.058683
  H      29.517217    -16.855671     -0.666151
  H      33.452540    -14.776909      0.016998
  H      32.333875    -13.394820     -0.275484
  H      32.827902    -13.809623      1.410004
  H      36.180271    -16.278870     -0.890563
  H      35.444766    -16.019356      0.409345
14
Coordinates from ORCA-job reactants E -344.378002499589
  C      29.379053    -16.011036      0.032923
  C      30.432428    -14.968578     -0.259801
  O      31.487219    -15.109654      0.569667
  O      30.356997    -14.136390     -1.129672
  C      32.591500    -14.206714      0.425493
  O      35.404398    -15.827784     -0.555211
  H      28.389158    -15.610643     -0.222954
  H      29.414722    -16.331882      1.082310
  H      29.565065    -16.891552     -0.604339
  H      33.452504    -14.758229      0.023577
  H      32.325438    -13.386652     -0.256273
  H      32.821835    -13.812844      1.427612
  H      36.198080    -16.251471     -0.909089
  H      35.406138    -16.094186      0.375756
14
Coordinates from ORCA-job reactants E -344.378119397277
  C      29.393683    -16.011520      0.030885
  C      30.445820    -14.966844     -0.260278
  O      31.493565    -15.104661      0.581058
  O      30.377172    -14.138359     -1.133887
  C      32.588868    -14.189885      0.451672
  O      35.403894    -15.801096     -0.573478
  H      28.427024    -15.677669     -0.367435
  H      29.326849    -16.220782      1.107143
  H      29.671213    -16.951064     -0.476055
  H      33.456572    -14.724362      0.042062
  H      32.315166    -13.363751     -0.217434
  H      32.818658    -13.811974      1.461457
  H      36.199986    -16.212340     -0.936860
  H      35.306065    -16.223308      0.291150
14
Coordinates from ORCA-job reactants E -344.378270356290
  C      29.399486    -16.008394      0.030189
  C      30.451707    -14.962329     -0.257074
  O      31.501068    -15.112806      0.581218
  O      30.380741    -14.122838     -1.119320
  C      32.592270    -14.192787      0.462959
  O      35.413729    -15.766187     -0.570404
  H      28.478298    -15.761245     -0.511843
  H      29.211274    -16.094709      1.109977
  H      29.761220    -16.992549     -0.312408
  H      33.453814    -14.701566      0.021121
  H      32.305707    -13.346490     -0.171951
  H      32.845006    -13.850307      1.480513
  H      36.219859    -16.158162     -0.932617
  H      35.210355    -16.327248      0.189641
14
Coordinates from ORCA-job reactants E -344.378431472388
  C      29.429724    -16.018887      0.021822
  C      30.471399    -14.959034     -0.252301
  O      31.511649    -15.098984      0.598120
  O      30.397550    -14.115193     -1.109670
  C      32.596357    -14.170948      0.490737
  O      35.384813    -15.752312     -0.568736
  H      28.579859    -15.886859     -0.658317
  H      29.101847    -15.981806      1.071722
  H      29.871171    -17.017795     -0.130538
  H      33.460333    -14.665774      0.030349
  H      32.299499    -13.309659     -0.117752
  H      32.862453    -13.854871      1.512749
  H      36.192292    -16.139471     -0.932413
  H      35.065586    -16.426023      0.044228
14
Coordinates from ORCA-job reactants E -344.378575705480
  C      29.448927    -16.033374      0.016033
  C      30.472589    -14.953068     -0.243304
  O      31.528515    -15.097934      0.581849
  O      30.362301    -14.077303     -1.064074
  C      32.607380    -14.166793      0.469116
  O      35.354578    -15.754683     -0.540958
  H      28.615068    -15.931080     -0.688916
  H      29.081231    -15.969791      1.052447
  H      29.916957    -17.024144     -0.090408
  H      33.458364    -14.632813     -0.045972
  H      32.288941    -13.272634     -0.082587
  H      32.917189    -13.893773      1.490231
  H      36.166244    -16.145253     -0.889826
  H      35.006249    -16.444973      0.036370
14
Coordinates from ORCA-job reactants E -344.378676584249
  C      29.489806    -16.053288      0.008215
  C      30.496655    -14.955507     -0.240258
  O      31.548907    -15.082534      0.591001
  O      30.376744    -14.076662     -1.056662
  C      32.614099    -14.128876      0.489141
  O      35.307092    -15.766903     -0.532400
  H      28.704788    -16.016594     -0.756052
  H      29.044651    -15.928262      1.008502
  H      29.990501    -17.033310      0.004639
  H      33.466231    -14.580888     -0.044718
  H      32.270977    -13.224990     -0.040513
  H      32.927421    -13.881730      1.513405
  H      36.112506    -16.172659     -0.878461
  H      34.874157    -16.495414     -0.065839
14
Coordinates from ORCA-job reactants E -344.378750125893
  C      29.519173    -16.068432      0.003409
  C      30.512215    -14.957015     -0.235371
  O      31.571804    -15.080953      0.587045
  O      30.376875    -14.064222     -1.034252
  C      32.618200    -14.103885      0.492470
  O      35.273846    -15.780343     -0.518188
  H      28.756835    -16.058607     -0.784215
  H      29.037621    -15.918745      0.983539
  H      30.032719    -17.040691      0.041605
  H      33.470421    -14.535022     -0.057641
  H      32.256789    -13.201521     -0.018161
  H      32.935665    -13.870825      1.516207
  H      36.075565    -16.199249     -0.857752
  H      34.786805    -16.518106     -0.118694
14
Coordinates from ORCA-job reactants E -344.378878630501
  C      29.580063    -16.097330     -0.003766
  C      30.545086    -14.959238     -0.233042
  O      31.618347    -15.073221      0.574311
  O      30.378148    -14.049748     -1.007413
  C      32.624637    -14.054280      0.500981
  O      35.200128    -15.819178     -0.491300
  H      28.869235    -16.149631     -0.837015
  H      29.024466    -15.900815      0.928335
  H      30.115116    -17.049154      0.125058
  H      33.485758    -14.425149     -0.077875
  H      32.215545    -13.141689      0.040969
  H      32.957845    -13.863357      1.528575
  H      35.991934    -16.266372     -0.819570
  H      34.618226    -16.548452     -0.228247
