14
Coordinates from ORCA-job reactants E -344.378878630501
  C          29.58006297120613    -16.09733039256556     -0.00376613513732
  C          30.54508647212802    -14.95923802943834     -0.23304206350375
  O          31.61834684410780    -15.07322082691816      0.57431079039649
  O          30.37814793933621    -14.04974789993469     -1.00741338731574
  C          32.62463748181105    -14.05428035165941      0.50098055319422
  O          35.20012777403119    -15.81917797942113     -0.49129962587244
  H          28.86923540440695    -16.14963101358884     -0.83701529532118
  H          29.02446572628506    -15.90081518532904      0.92833516888966
  H          30.11511581311052    -17.04915446477423      0.12505795688770
  H          33.48575762694486    -14.42514938678023     -0.07787516270160
  H          32.21554485504925    -13.14168926567977      0.04096925107183
  H          32.95784453600900    -13.86335734296315      1.52857549674066
  H          35.99193413223905    -16.26637178204490     -0.81957021226786
  H          34.61822649986784    -16.54845230571516     -0.22824704785542
