8
Coordinates from ORCA-job bromoethane E -2650.686622165506
  C      14.057013    -11.506695     -0.106555
  C      15.313237    -10.701414      0.135940
  Br     17.025102    -11.659663      0.147793
  H      13.859350    -11.601539     -1.196742
  H      14.128199    -12.549782      0.262374
  H      13.171091    -11.023343      0.353432
  H      15.341731    -10.140412      1.082520
  H      15.472483     -9.952497     -0.678682
8
Coordinates from ORCA-job bromoethane E -2650.690619421015
  C      14.068736    -11.507565     -0.116460
  C      15.311025    -10.679995      0.128002
  Br     16.990372    -11.690569      0.102127
  H      13.892457    -11.640073     -1.183954
  H      14.138598    -12.507311      0.309799
  H      13.195026    -11.014469      0.308679
  H      15.324104    -10.173492      1.086367
  H      15.447888     -9.921870     -0.634479
8
Coordinates from ORCA-job bromoethane E -2650.692126838416
  C      14.078264    -11.510121     -0.123057
  C      15.311187    -10.665998      0.129112
  Br     16.965692    -11.709670      0.033349
  H      13.940228    -11.698328     -1.184185
  H      14.133183    -12.470582      0.379918
  H      13.198481    -10.987030      0.247394
  H      15.316651    -10.218633      1.114843
  H      15.424520     -9.874982     -0.597293
8
Coordinates from ORCA-job bromoethane E -2650.693231045354
  C      14.084964    -11.512381     -0.126654
  C      15.312410    -10.661064      0.139559
  Br     16.953063    -11.706565     -0.074177
  H      14.012030    -11.787596     -1.176138
  H      14.097284    -12.416120      0.476602
  H      13.195029    -10.941315      0.143978
  H      15.322961    -10.288158      1.157359
  H      15.390465     -9.822146     -0.540448
8
Coordinates from ORCA-job bromoethane E -2650.693548609133
  C      14.083823    -11.511831     -0.125470
  C      15.312286    -10.665784      0.148553
  Br     16.956904    -11.686524     -0.134520
  H      14.049894    -11.838326     -1.163553
  H      14.062565    -12.385828      0.523346
  H      13.190848    -10.915528      0.079496
  H      15.338708    -10.327687      1.179652
  H      15.373178     -9.803836     -0.507423
8
Coordinates from ORCA-job bromoethane E -2650.693632305217
  C      14.080688    -11.510418     -0.123205
  C      15.310955    -10.669946      0.152246
  Br     16.963277    -11.673096     -0.147595
  H      14.057467    -11.850601     -1.158043
  H      14.047730    -12.381546      0.530672
  H      13.186975    -10.908645      0.061941
  H      15.350333    -10.336641      1.184875
  H      15.370781     -9.804451     -0.500809
8
Coordinates from ORCA-job bromoethane E -2650.693641686685
  C      14.079977    -11.509807     -0.122212
  C      15.309587    -10.670419      0.153067
  Br     16.964460    -11.670330     -0.148390
  H      14.058618    -11.851769     -1.156572
  H      14.044762    -12.382121      0.529856
  H      13.186058    -10.907925      0.059619
  H      15.354304    -10.337201      1.185262
  H      15.370441     -9.805771     -0.500547
8
Coordinates from ORCA-job bromoethane E -2650.693642924625
  C      14.080031    -11.509724     -0.121995
  C      15.308909    -10.669983      0.153211
  Br     16.964338    -11.670599     -0.148227
  H      14.059034    -11.851727     -1.156282
  H      14.044457    -12.382457      0.529329
  H      13.185932    -10.908118      0.059464
  H      15.355342    -10.336970      1.185270
  H      15.370164     -9.805768     -0.500688
8
Coordinates from ORCA-job bromoethane E -2650.693643151563
  C      14.080124    -11.509769     -0.122005
  C      15.308620    -10.669613      0.153229
  Br     16.964168    -11.671129     -0.148026
  H      14.059151    -11.851530     -1.156344
  H      14.044605    -12.382593      0.529142
  H      13.185876    -10.908397      0.059653
  H      15.355590    -10.336723      1.185268
  H      15.370072     -9.805590     -0.500836
