! HF DEF2-SVP
* XYZ 0 1
N         18.51030      -12.55830        0.00000
C         16.82490      -12.01560        0.00000
C         16.82490      -10.23440        0.00000
C         18.51030       -9.69150        0.00000
C         15.28220      -12.90620        0.00000
C         15.28220       -9.34380        0.00000
C         19.54980      -11.12500        0.00000
C         13.73970      -12.01560        0.00000
C         13.73970      -10.23440        0.00000
H         18.85330      -13.60800        0.00000
H         18.85330       -8.64180        0.00000
H         15.28220      -14.01050        0.00000
H         15.28220       -8.23950        0.00000
H         20.65410      -11.12500        0.00000
H         12.78340      -12.56780        0.00000
H         12.78340       -9.68220        0.00000
*